IEEE39Case_Simulations/plots/csv/rotor_angle_dev_bus18_julia.csv
t_s,rotor_angle_dev_rad,bus_voltage_angle_dev_rad,angle_source,angle_is_exact_bus_voltage
0.0,0.0,0.0,Vmag_get_voltage_magnitude_series__angle_get_voltage_angle_series,true
0.01,-2.942091015256667e-16,-2.942091015256667e-16,Vmag_get_voltage_magnitude_series__angle_get_voltage_angle_series,true
0.02,-2.55351295663787e-16,-2.55351295663787e-16,Vmag_get_voltage_magnitude_series__angle_get_voltage_angle_series,true
0.03,-2.0816681711721823e-16,-2.0816681711721823e-16,Vmag_get_voltage_magnitude_series__angle_get_voltage_angle_series,true
0.04,-9.298117831235384e-17,-9.298117831235384e-17,Vmag_get_voltage_magnitude_series__angle_get_voltage_angle_series,true
0.05,4.371503159461353e-17,4.371503159461353e-17,Vmag_get_voltage_magnitude_series__angle_get_voltage_angle_series,true
0.06,-1.5890067039947138e-16,-1.5890067039947138e-16,Vmag_get_voltage_magnitude_series__angle_get_voltage_angle_series,true
0.07,9.783840404509685e-17,9.783840404509685e-17,Vmag_get_voltage_magnitude_series__angle_get_voltage_angle_series,true
0.08,-2.0747292772681663e-16,-2.0747292772681663e-16,Vmag_get_voltage_magnitude_series__angle_get_voltage_angle_series,true
0.09,-1.1796119636641788e-16,-1.1796119636641788e-16,Vmag_get_voltage_magnitude_series__angle_get_voltage_angle_series,true
0.1,-2.7755575615486265e-18,-2.7755575615486265e-18,Vmag_get_voltage_magnitude_series__angle_get_voltage_angle_series,true
0.11,-1.5057399771478656e-16,-1.5057399771478656e-16,Vmag_get_voltage_magnitude_series__angle_get_voltage_angle_series,true
0.12,-5.759281940242861e-17,-5.759281940242861e-17,Vmag_get_voltage_magnitude_series__angle_get_voltage_angle_series,true
0.13,1.3183898417407441e-17,1.3183898417407441e-17,Vmag_get_voltage_magnitude_series__angle_get_voltage_angle_series,true
0.14,-1.401656568589257e-16,-1.401656568589257e-16,Vmag_get_voltage_magnitude_series__angle_get_voltage_angle_series,true
0.15,-6.453171330629559e-17,-6.453171330629559e-17,Vmag_get_voltage_magnitude_series__angle_get_voltage_angle_series,true
0.16,-6.869504964862531e-17,-6.869504964862531e-17,Vmag_get_voltage_magnitude_series__angle_get_voltage_angle_series,true
0.17,-6.245004513504549e-18,-6.245004513504549e-18,Vmag_get_voltage_magnitude_series__angle_get_voltage_angle_series,true
0.18,-1.5959455978949418e-17,-1.5959455978949418e-17,Vmag_get_voltage_magnitude_series__angle_get_voltage_angle_series,true
0.19,5.8980598183233e-17,5.8980598183233e-17,Vmag_get_voltage_magnitude_series__angle_get_voltage_angle_series,true
0.2,-2.2898349882893854e-16,-2.2898349882893854e-16,Vmag_get_voltage_magnitude_series__angle_get_voltage_angle_series,true
0.21,-0.17796440127739413,-0.17796440127739413,Vmag_get_voltage_magnitude_series__angle_get_voltage_angle_series,true
0.22,-0.18829704730650768,-0.18829704730650768,Vmag_get_voltage_magnitude_series__angle_get_voltage_angle_series,true
0.23,-0.18343051456906598,-0.18343051456906598,Vmag_get_voltage_magnitude_series__angle_get_voltage_angle_series,true
0.24,-0.1871132754093584,-0.1871132754093584,Vmag_get_voltage_magnitude_series__angle_get_voltage_angle_series,true
0.25,-0.1817546339332436,-0.1817546339332436,Vmag_get_voltage_magnitude_series__angle_get_voltage_angle_series,true
0.26,-0.1822375233407981,-0.1822375233407981,Vmag_get_voltage_magnitude_series__angle_get_voltage_angle_series,true
0.27,-0.18100162782630308,-0.18100162782630308,Vmag_get_voltage_magnitude_series__angle_get_voltage_angle_series,true
0.28,-0.17992689334834625,-0.17992689334834625,Vmag_get_voltage_magnitude_series__angle_get_voltage_angle_series,true
0.29,-0.17876098091121523,-0.17876098091121523,Vmag_get_voltage_magnitude_series__angle_get_voltage_angle_series,true
0.3,-0.1775211399461819,-0.1775211399461819,Vmag_get_voltage_magnitude_series__angle_get_voltage_angle_series,true
0.31,0.03415251119980962,0.03415251119980962,Vmag_get_voltage_magnitude_series__angle_get_voltage_angle_series,true
0.32,0.021868258506937376,0.021868258506937376,Vmag_get_voltage_magnitude_series__angle_get_voltage_angle_series,true
0.33,0.01432982321249156,0.01432982321249156,Vmag_get_voltage_magnitude_series__angle_get_voltage_angle_series,true
0.34,0.018009452905794407,0.018009452905794407,Vmag_get_voltage_magnitude_series__angle_get_voltage_angle_series,true
0.35,0.014214538518789321,0.014214538518789321,Vmag_get_voltage_magnitude_series__angle_get_voltage_angle_series,true
0.36,0.011829494920568139,0.011829494920568139,Vmag_get_voltage_magnitude_series__angle_get_voltage_angle_series,true
0.37,0.008700007594932994,0.008700007594932994,Vmag_get_voltage_magnitude_series__angle_get_voltage_angle_series,true
0.38,0.005328113275143724,0.005328113275143724,Vmag_get_voltage_magnitude_series__angle_get_voltage_angle_series,true
0.39,0.0013756706377372927,0.0013756706377372927,Vmag_get_voltage_magnitude_series__angle_get_voltage_angle_series,true
0.4,-0.002791000647465763,-0.002791000647465763,Vmag_get_voltage_magnitude_series__angle_get_voltage_angle_series,true
0.41,-0.007215176516914617,-0.007215176516914617,Vmag_get_voltage_magnitude_series__angle_get_voltage_angle_series,true
0.42,-0.011802066299767208,-0.011802066299767208,Vmag_get_voltage_magnitude_series__angle_get_voltage_angle_series,true
0.43,-0.016507295124027727,-0.016507295124027727,Vmag_get_voltage_magnitude_series__angle_get_voltage_angle_series,true
0.44,-0.021268209316783793,-0.021268209316783793,Vmag_get_voltage_magnitude_series__angle_get_voltage_angle_series,true
0.45,-0.02604124846244331,-0.02604124846244331,Vmag_get_voltage_magnitude_series__angle_get_voltage_angle_series,true
0.46,-0.03078257045997777,-0.03078257045997777,Vmag_get_voltage_magnitude_series__angle_get_voltage_angle_series,true
0.47,-0.035455656180711295,-0.035455656180711295,Vmag_get_voltage_magnitude_series__angle_get_voltage_angle_series,true
0.48,-0.04002853665120805,-0.04002853665120805,Vmag_get_voltage_magnitude_series__angle_get_voltage_angle_series,true
0.49,-0.04447491023410686,-0.04447491023410686,Vmag_get_voltage_magnitude_series__angle_get_voltage_angle_series,true
0.5,-0.04877360186203117,-0.04877360186203117,Vmag_get_voltage_magnitude_series__angle_get_voltage_angle_series,true
0.51,-0.05290877650344322,-0.05290877650344322,Vmag_get_voltage_magnitude_series__angle_get_voltage_angle_series,true
0.52,-0.056869813264145724,-0.056869813264145724,Vmag_get_voltage_magnitude_series__angle_get_voltage_angle_series,true
0.53,-0.06065121208653856,-0.06065121208653856,Vmag_get_voltage_magnitude_series__angle_get_voltage_angle_series,true
0.54,-0.06425235940578679,-0.06425235940578679,Vmag_get_voltage_magnitude_series__angle_get_voltage_angle_series,true
0.55,-0.06767709794105548,-0.06767709794105548,Vmag_get_voltage_magnitude_series__angle_get_voltage_angle_series,true
0.56,-0.07093319349593834,-0.07093319349593834,Vmag_get_voltage_magnitude_series__angle_get_voltage_angle_series,true
0.57,-0.07403161053452138,-0.07403161053452138,Vmag_get_voltage_magnitude_series__angle_get_voltage_angle_series,true
0.58,-0.07698566792980752,-0.07698566792980752,Vmag_get_voltage_magnitude_series__angle_get_voltage_angle_series,true
0.59,-0.07981007406150747,-0.07981007406150747,Vmag_get_voltage_magnitude_series__angle_get_voltage_angle_series,true
0.6,-0.08252010280584629,-0.08252010280584629,Vmag_get_voltage_magnitude_series__angle_get_voltage_angle_series,true
0.61,-0.0851307215259683,-0.0851307215259683,Vmag_get_voltage_magnitude_series__angle_get_voltage_angle_series,true
0.62,-0.08765588525510322,-0.08765588525510322,Vmag_get_voltage_magnitude_series__angle_get_voltage_angle_series,true
0.63,-0.09010803541324378,-0.09010803541324378,Vmag_get_voltage_magnitude_series__angle_get_voltage_angle_series,true
0.64,-0.09249776791681771,-0.09249776791681771,Vmag_get_voltage_magnitude_series__angle_get_voltage_angle_series,true
0.65,-0.0948336205245138,-0.0948336205245138,Vmag_get_voltage_magnitude_series__angle_get_voltage_angle_series,true
0.66,-0.0971220908827996,-0.0971220908827996,Vmag_get_voltage_magnitude_series__angle_get_voltage_angle_series,true
0.67,-0.09936770320652899,-0.09936770320652899,Vmag_get_voltage_magnitude_series__angle_get_voltage_angle_series,true
0.68,-0.10157319042866336,-0.10157319042866336,Vmag_get_voltage_magnitude_series__angle_get_voltage_angle_series,true
0.69,-0.1037397225252289,-0.1037397225252289,Vmag_get_voltage_magnitude_series__angle_get_voltage_angle_series,true
0.7,-0.1058671677847815,-0.1058671677847815,Vmag_get_voltage_magnitude_series__angle_get_voltage_angle_series,true
0.71,-0.10795436376000854,-0.10795436376000854,Vmag_get_voltage_magnitude_series__angle_get_voltage_angle_series,true
0.72,-0.1099993780016177,-0.1099993780016177,Vmag_get_voltage_magnitude_series__angle_get_voltage_angle_series,true
0.73,-0.1119997495531886,-0.1119997495531886,Vmag_get_voltage_magnitude_series__angle_get_voltage_angle_series,true
0.74,-0.11395272013659054,-0.11395272013659054,Vmag_get_voltage_magnitude_series__angle_get_voltage_angle_series,true
0.75,-0.11585543043574908,-0.11585543043574908,Vmag_get_voltage_magnitude_series__angle_get_voltage_angle_series,true
0.76,-0.11770509755843504,-0.11770509755843504,Vmag_get_voltage_magnitude_series__angle_get_voltage_angle_series,true
0.77,-0.11949914300389441,-0.11949914300389441,Vmag_get_voltage_magnitude_series__angle_get_voltage_angle_series,true
0.78,-0.12123532309818266,-0.12123532309818266,Vmag_get_voltage_magnitude_series__angle_get_voltage_angle_series,true
0.79,-0.12291180579297074,-0.12291180579297074,Vmag_get_voltage_magnitude_series__angle_get_voltage_angle_series,true
0.8,-0.1245272392556374,-0.1245272392556374,Vmag_get_voltage_magnitude_series__angle_get_voltage_angle_series,true
0.81,-0.12608078883259716,-0.12608078883259716,Vmag_get_voltage_magnitude_series__angle_get_voltage_angle_series,true
0.82,-0.12757215693839288,-0.12757215693839288,Vmag_get_voltage_magnitude_series__angle_get_voltage_angle_series,true
0.83,-0.12900157837112808,-0.12900157837112808,Vmag_get_voltage_magnitude_series__angle_get_voltage_angle_series,true
0.84,-0.13036980364847842,-0.13036980364847842,Vmag_get_voltage_magnitude_series__angle_get_voltage_angle_series,true
0.85,-0.13167806419961797,-0.13167806419961797,Vmag_get_voltage_magnitude_series__angle_get_voltage_angle_series,true
0.86,-0.1329280276886189,-0.1329280276886189,Vmag_get_voltage_magnitude_series__angle_get_voltage_angle_series,true
0.87,-0.13412174002203567,-0.13412174002203567,Vmag_get_voltage_magnitude_series__angle_get_voltage_angle_series,true
0.88,-0.135261566566912,-0.135261566566912,Vmag_get_voltage_magnitude_series__angle_get_voltage_angle_series,true
0.89,-0.13635012361508564,-0.13635012361508564,Vmag_get_voltage_magnitude_series__angle_get_voltage_angle_series,true
0.9,-0.1373902139184605,-0.1373902139184605,Vmag_get_voltage_magnitude_series__angle_get_voltage_angle_series,true
0.91,-0.13838475296292016,-0.13838475296292016,Vmag_get_voltage_magnitude_series__angle_get_voltage_angle_series,true
0.92,-0.13933671216442323,-0.13933671216442323,Vmag_get_voltage_magnitude_series__angle_get_voltage_angle_series,true
0.93,-0.14024905473531038,-0.14024905473531038,Vmag_get_voltage_magnitude_series__angle_get_voltage_angle_series,true
0.94,-0.14112468771645958,-0.14112468771645958,Vmag_get_voltage_magnitude_series__angle_get_voltage_angle_series,true
0.95,-0.14196641018205736,-0.14196641018205736,Vmag_get_voltage_magnitude_series__angle_get_voltage_angle_series,true
0.96,-0.14277688046825346,-0.14277688046825346,Vmag_get_voltage_magnitude_series__angle_get_voltage_angle_series,true
0.97,-0.14355858026623447,-0.14355858026623447,Vmag_get_voltage_magnitude_series__angle_get_voltage_angle_series,true
0.98,-0.14431379494291033,-0.14431379494291033,Vmag_get_voltage_magnitude_series__angle_get_voltage_angle_series,true
0.99,-0.1450446017831581,-0.1450446017831581,Vmag_get_voltage_magnitude_series__angle_get_voltage_angle_series,true
1.0,-0.14575285868389593,-0.14575285868389593,Vmag_get_voltage_magnitude_series__angle_get_voltage_angle_series,true
1.01,-0.14644020405111216,-0.14644020405111216,Vmag_get_voltage_magnitude_series__angle_get_voltage_angle_series,true
1.02,-0.1471080605125419,-0.1471080605125419,Vmag_get_voltage_magnitude_series__angle_get_voltage_angle_series,true
1.03,-0.14775764487736592,-0.14775764487736592,Vmag_get_voltage_magnitude_series__angle_get_voltage_angle_series,true
1.04,-0.1483899807101227,-0.1483899807101227,Vmag_get_voltage_magnitude_series__angle_get_voltage_angle_series,true
1.05,-0.14900591321693904,-0.14900591321693904,Vmag_get_voltage_magnitude_series__angle_get_voltage_angle_series,true
1.06,-0.14960612852160066,-0.14960612852160066,Vmag_get_voltage_magnitude_series__angle_get_voltage_angle_series,true
1.07,-0.15019117155148096,-0.15019117155148096,Vmag_get_voltage_magnitude_series__angle_get_voltage_angle_series,true
1.08,-0.15076146686065342,-0.15076146686065342,Vmag_get_voltage_magnitude_series__angle_get_voltage_angle_series,true
1.09,-0.15131733777552833,-0.15131733777552833,Vmag_get_voltage_magnitude_series__angle_get_voltage_angle_series,true
1.1,-0.15185902554025332,-0.15185902554025332,Vmag_get_voltage_magnitude_series__angle_get_voltage_angle_series,true
1.11,-0.15238670906820728,-0.15238670906820728,Vmag_get_voltage_magnitude_series__angle_get_voltage_angle_series,true
1.12,-0.15290052046633587,-0.15290052046633587,Vmag_get_voltage_magnitude_series__angle_get_voltage_angle_series,true
1.13,-0.15340056200614663,-0.15340056200614663,Vmag_get_voltage_magnitude_series__angle_get_voltage_angle_series,true
1.14,-0.15388692026085993,-0.15388692026085993,Vmag_get_voltage_magnitude_series__angle_get_voltage_angle_series,true
1.15,-0.15435967781604482,-0.15435967781604482,Vmag_get_voltage_magnitude_series__angle_get_voltage_angle_series,true
1.16,-0.15481892429687494,-0.15481892429687494,Vmag_get_voltage_magnitude_series__angle_get_voltage_angle_series,true
1.17,-0.1552647648125457,-0.1552647648125457,Vmag_get_voltage_magnitude_series__angle_get_voltage_angle_series,true
1.18,-0.15569732828026456,-0.15569732828026456,Vmag_get_voltage_magnitude_series__angle_get_voltage_angle_series,true
1.19,-0.1561167722053098,-0.1561167722053098,Vmag_get_voltage_magnitude_series__angle_get_voltage_angle_series,true
1.2,-0.15652328737574897,-0.15652328737574897,Vmag_get_voltage_magnitude_series__angle_get_voltage_angle_series,true
1.21,-0.1569171007854421,-0.1569171007854421,Vmag_get_voltage_magnitude_series__angle_get_voltage_angle_series,true
1.22,-0.15729847715160183,-0.15729847715160183,Vmag_get_voltage_magnitude_series__angle_get_voltage_angle_series,true
1.23,-0.15766772015482564,-0.15766772015482564,Vmag_get_voltage_magnitude_series__angle_get_voltage_angle_series,true
1.24,-0.15802517265830707,-0.15802517265830707,Vmag_get_voltage_magnitude_series__angle_get_voltage_angle_series,true
1.25,-0.15837121514393515,-0.15837121514393515,Vmag_get_voltage_magnitude_series__angle_get_voltage_angle_series,true
1.26,-0.15870626548536512,-0.15870626548536512,Vmag_get_voltage_magnitude_series__angle_get_voltage_angle_series,true
1.27,-0.1590307761178218,-0.1590307761178218,Vmag_get_voltage_magnitude_series__angle_get_voltage_angle_series,true
1.28,-0.15934523200337977,-0.15934523200337977,Vmag_get_voltage_magnitude_series__angle_get_voltage_angle_series,true
1.29,-0.15965014873022387,-0.15965014873022387,Vmag_get_voltage_magnitude_series__angle_get_voltage_angle_series,true
1.3,-0.15994606763846447,-0.15994606763846447,Vmag_get_voltage_magnitude_series__angle_get_voltage_angle_series,true
1.31,-0.1602335553618521,-0.1602335553618521,Vmag_get_voltage_magnitude_series__angle_get_voltage_angle_series,true
1.32,-0.16051319781988052,-0.16051319781988052,Vmag_get_voltage_magnitude_series__angle_get_voltage_angle_series,true
1.33,-0.1607855978565665,-0.1607855978565665,Vmag_get_voltage_magnitude_series__angle_get_voltage_angle_series,true
1.34,-0.1610513715007109,-0.1610513715007109,Vmag_get_voltage_magnitude_series__angle_get_voltage_angle_series,true
1.35,-0.16131114271412472,-0.16131114271412472,Vmag_get_voltage_magnitude_series__angle_get_voltage_angle_series,true
1.36,-0.16156554036186332,-0.16156554036186332,Vmag_get_voltage_magnitude_series__angle_get_voltage_angle_series,true
1.37,-0.16181519372730876,-0.16181519372730876,Vmag_get_voltage_magnitude_series__angle_get_voltage_angle_series,true
1.38,-0.16206072745256464,-0.16206072745256464,Vmag_get_voltage_magnitude_series__angle_get_voltage_angle_series,true
1.39,-0.16230275775671424,-0.16230275775671424,Vmag_get_voltage_magnitude_series__angle_get_voltage_angle_series,true
1.4,-0.16254188642406805,-0.16254188642406805,Vmag_get_voltage_magnitude_series__angle_get_voltage_angle_series,true
1.41,-0.16277869802183478,-0.16277869802183478,Vmag_get_voltage_magnitude_series__angle_get_voltage_angle_series,true
1.42,-0.1630137537974917,-0.1630137537974917,Vmag_get_voltage_magnitude_series__angle_get_voltage_angle_series,true
1.43,-0.16324758808853493,-0.16324758808853493,Vmag_get_voltage_magnitude_series__angle_get_voltage_angle_series,true
1.44,-0.16348070277612317,-0.16348070277612317,Vmag_get_voltage_magnitude_series__angle_get_voltage_angle_series,true
1.45,-0.16371356374317805,-0.16371356374317805,Vmag_get_voltage_magnitude_series__angle_get_voltage_angle_series,true
1.46,-0.1639465968685164,-0.1639465968685164,Vmag_get_voltage_magnitude_series__angle_get_voltage_angle_series,true
1.47,-0.16418018314652982,-0.16418018314652982,Vmag_get_voltage_magnitude_series__angle_get_voltage_angle_series,true
1.48,-0.16441465641403036,-0.16441465641403036,Vmag_get_voltage_magnitude_series__angle_get_voltage_angle_series,true
1.49,-0.16465029963332434,-0.16465029963332434,Vmag_get_voltage_magnitude_series__angle_get_voltage_angle_series,true
1.5,-0.1648873417535404,-0.1648873417535404,Vmag_get_voltage_magnitude_series__angle_get_voltage_angle_series,true
1.51,-0.16512595639907832,-0.16512595639907832,Vmag_get_voltage_magnitude_series__angle_get_voltage_angle_series,true
1.52,-0.1653662586228397,-0.1653662586228397,Vmag_get_voltage_magnitude_series__angle_get_voltage_angle_series,true
1.53,-0.16560830481003724,-0.16560830481003724,Vmag_get_voltage_magnitude_series__angle_get_voltage_angle_series,true
1.54,-0.16585209282179128,-0.16585209282179128,Vmag_get_voltage_magnitude_series__angle_get_voltage_angle_series,true
1.55,-0.16609755952911304,-0.16609755952911304,Vmag_get_voltage_magnitude_series__angle_get_voltage_angle_series,true
1.56,-0.1663445826366467,-0.1663445826366467,Vmag_get_voltage_magnitude_series__angle_get_voltage_angle_series,true
1.57,-0.16659298167537695,-0.16659298167537695,Vmag_get_voltage_magnitude_series__angle_get_voltage_angle_series,true
1.58,-0.16684251923285603,-0.16684251923285603,Vmag_get_voltage_magnitude_series__angle_get_voltage_angle_series,true
1.59,-0.1670929041920231,-0.1670929041920231,Vmag_get_voltage_magnitude_series__angle_get_voltage_angle_series,true
1.6,-0.16734379261011814,-0.16734379261011814,Vmag_get_voltage_magnitude_series__angle_get_voltage_angle_series,true
1.61,-0.16759479221478166,-0.16759479221478166,Vmag_get_voltage_magnitude_series__angle_get_voltage_angle_series,true
1.62,-0.16784546540961495,-0.16784546540961495,Vmag_get_voltage_magnitude_series__angle_get_voltage_angle_series,true
1.63,-0.16809533399295354,-0.16809533399295354,Vmag_get_voltage_magnitude_series__angle_get_voltage_angle_series,true
1.64,-0.16834388248341126,-0.16834388248341126,Vmag_get_voltage_magnitude_series__angle_get_voltage_angle_series,true
1.65,-0.16859056439124542,-0.16859056439124542,Vmag_get_voltage_magnitude_series__angle_get_voltage_angle_series,true
1.66,-0.1688348061527694,-0.1688348061527694,Vmag_get_voltage_magnitude_series__angle_get_voltage_angle_series,true
1.67,-0.1690760124632978,-0.1690760124632978,Vmag_get_voltage_magnitude_series__angle_get_voltage_angle_series,true
1.68,-0.16931357176932108,-0.16931357176932108,Vmag_get_voltage_magnitude_series__angle_get_voltage_angle_series,true
1.69,-0.1695468617254095,-0.1695468617254095,Vmag_get_voltage_magnitude_series__angle_get_voltage_angle_series,true
1.7,-0.1697752553843649,-0.1697752553843649,Vmag_get_voltage_magnitude_series__angle_get_voltage_angle_series,true
1.71,-0.1699981260696282,-0.1699981260696282,Vmag_get_voltage_magnitude_series__angle_get_voltage_angle_series,true
1.72,-0.17021485241639311,-0.17021485241639311,Vmag_get_voltage_magnitude_series__angle_get_voltage_angle_series,true
1.73,-0.1704248245344671,-0.1704248245344671,Vmag_get_voltage_magnitude_series__angle_get_voltage_angle_series,true
1.74,-0.1706274485934897,-0.1706274485934897,Vmag_get_voltage_magnitude_series__angle_get_voltage_angle_series,true
1.75,-0.1708221519192484,-0.1708221519192484,Vmag_get_voltage_magnitude_series__angle_get_voltage_angle_series,true
1.76,-0.17100838788548534,-0.17100838788548534,Vmag_get_voltage_magnitude_series__angle_get_voltage_angle_series,true
1.77,-0.1711856401148348,-0.1711856401148348,Vmag_get_voltage_magnitude_series__angle_get_voltage_angle_series,true
1.78,-0.17135342593231367,-0.17135342593231367,Vmag_get_voltage_magnitude_series__angle_get_voltage_angle_series,true
1.79,-0.17151130041884716,-0.17151130041884716,Vmag_get_voltage_magnitude_series__angle_get_voltage_angle_series,true
1.8,-0.17165886005415024,-0.17165886005415024,Vmag_get_voltage_magnitude_series__angle_get_voltage_angle_series,true
1.81,-0.17179574461530944,-0.17179574461530944,Vmag_get_voltage_magnitude_series__angle_get_voltage_angle_series,true
1.82,-0.17192163993777554,-0.17192163993777554,Vmag_get_voltage_magnitude_series__angle_get_voltage_angle_series,true
1.83,-0.17203628008878097,-0.17203628008878097,Vmag_get_voltage_magnitude_series__angle_get_voltage_angle_series,true
1.84,-0.17213944814738355,-0.17213944814738355,Vmag_get_voltage_magnitude_series__angle_get_voltage_angle_series,true
1.85,-0.1722309776516043,-0.1722309776516043,Vmag_get_voltage_magnitude_series__angle_get_voltage_angle_series,true
1.86,-0.1723107528539247,-0.1723107528539247,Vmag_get_voltage_magnitude_series__angle_get_voltage_angle_series,true
1.87,-0.17237870878409958,-0.17237870878409958,Vmag_get_voltage_magnitude_series__angle_get_voltage_angle_series,true
1.88,-0.17243483079809196,-0.17243483079809196,Vmag_get_voltage_magnitude_series__angle_get_voltage_angle_series,true
1.89,-0.17247915376020562,-0.17247915376020562,Vmag_get_voltage_magnitude_series__angle_get_voltage_angle_series,true
1.9,-0.1725117607720775,-0.1725117607720775,Vmag_get_voltage_magnitude_series__angle_get_voltage_angle_series,true
1.91,-0.1725327813334094,-0.1725327813334094,Vmag_get_voltage_magnitude_series__angle_get_voltage_angle_series,true
1.92,-0.1725423896359812,-0.1725423896359812,Vmag_get_voltage_magnitude_series__angle_get_voltage_angle_series,true
1.93,-0.1725408018228424,-0.1725408018228424,Vmag_get_voltage_magnitude_series__angle_get_voltage_angle_series,true
1.94,-0.1725282738826451,-0.1725282738826451,Vmag_get_voltage_magnitude_series__angle_get_voltage_angle_series,true
1.95,-0.17250509775926987,-0.17250509775926987,Vmag_get_voltage_magnitude_series__angle_get_voltage_angle_series,true
1.96,-0.17247159890117508,-0.17247159890117508,Vmag_get_voltage_magnitude_series__angle_get_voltage_angle_series,true
1.97,-0.17242813273135055,-0.17242813273135055,Vmag_get_voltage_magnitude_series__angle_get_voltage_angle_series,true
1.98,-0.1723750811387217,-0.1723750811387217,Vmag_get_voltage_magnitude_series__angle_get_voltage_angle_series,true
1.99,-0.17231284890137707,-0.17231284890137707,Vmag_get_voltage_magnitude_series__angle_get_voltage_angle_series,true
...
